# CIF file created by ISOCIF, version 3.1.1               
# Magnetic Space Group: 167.108 R-3c.1'_c[R-3m]
# Space-group preferences: rhombohedral axes
# Lattice parameters: a= 27.39848, b= 27.39848, c= 27.39848, alpha= 9.07191, beta= 9.07191, gamma= 9.07191
# Mn1 2a (0,0,0;mx,mx,mx), occ= 0.82000, mx= 1.57324
# Bi1 2a (0,0,0;mx,mx,mx), occ= 0.18000
# Bi2 4c (x,x,x;mx,mx,mx), x= 0.21245, occ= 0.99400
# Mn2 4c (x,x,x;mx,mx,mx), x= 0.21245, occ= 0.00600
# Te1 4c (x,x,x;mx,mx,mx), x= 0.06668
# Te2 4c (x,x,x;mx,mx,mx), x= 0.14703

data_isocif-output
_audit_creation_method ISOCIF

_cell_length_a     27.39848
_cell_length_b     27.39848
_cell_length_c     27.39848
_cell_angle_alpha  9.07191
_cell_angle_beta   9.07191
_cell_angle_gamma  9.07191
_cell_volume       443.74791

_space_group_magn.number_BNS "167.108"
_space_group_magn.name_UNI "R-3c.1'_c[R-3m]"
_space_group_magn.name_BNS "R_I-3c"
_space_group_magn.number_OG "166.7.1333"
_space_group_magn.name_OG "R_R-3m'"
_space_group_magn.point_group_number_Litvin "20.2.72"
_space_group_magn.point_group_name_UNI "-3m.1'"

loop_
_space_group_magn_transforms.id
_space_group_magn_transforms.Pp_abc
_space_group_magn_transforms.source
1 a-b,b-c,a+b+c;0,0,0 "BNS"
2 -a+b,-b+c,1/2a+1/2b+1/2c;0,0,0 "OG"

loop_
_space_group_symop_magn_operation.id
_space_group_symop_magn_operation.xyz
1 x,y,z,+1 
2 z,x,y,+1 
3 y,z,x,+1 
4 -z+1/2,-y+1/2,-x+1/2,+1 
5 -x+1/2,-z+1/2,-y+1/2,+1 
6 -y+1/2,-x+1/2,-z+1/2,+1 
7 -x,-y,-z,+1 
8 -z,-x,-y,+1 
9 -y,-z,-x,+1 
10 z+1/2,y+1/2,x+1/2,+1 
11 x+1/2,z+1/2,y+1/2,+1 
12 y+1/2,x+1/2,z+1/2,+1 

loop_
_space_group_symop_magn_centering.id
_space_group_symop_magn_centering.xyz
1 x,y,z,+1 
2 x+1/2,y+1/2,z+1/2,-1 

loop_
_atom_type_symbol
Mn    
Bi    
Te    

loop_
_atom_site_label
_atom_site_type_symbol
_atom_site_symmetry_multiplicity
_atom_site_Wyckoff_symbol
_atom_site_fract_x
_atom_site_fract_y
_atom_site_fract_z
_atom_site_occupancy
_atom_site_fract_symmform
Mn1 Mn   6 a  0.00000  0.00000  0.00000  1.00000 0,0,0       
Bi1 Bi  12 c  0.21245  0.21245  0.21245  1.00000 Dx,Dx,Dx 
Te1 Te  12 c  0.06668  0.06668  0.06668  1.00000 Dx,Dx,Dx 
Te2 Te  12 c  0.14703  0.14703  0.14703  1.00000 Dx,Dx,Dx 

loop_
_atom_site_moment.label
_atom_site_moment.crystalaxis_x
_atom_site_moment.crystalaxis_y
_atom_site_moment.crystalaxis_z
_atom_site_moment.symmform
Mn1  1.57324  1.57324  1.57324 Mx,Mx,Mx 

# end of cif
